.MODEL D1N4002   D(IS=14.11E-9  N=1.984  RS=33.89E-3  IKF=94.81  XTI=3
+ EG=1.110  CJO=51.17E-12  M=.2762  VJ=.3905  FC=.5  ISR=100.0E-12
+ NR=2  BV=100.1  IBV=10  TT=4.761E-6)